ELEMENTS O H N C END
SPECIES NH3 NO O2 N2 H2O CO2 CO CH4 H2 END
REACTIONS
NH3+NO+0.25O2=>N2+1.5H2O 1.38003e+22  3.05764  111256
NH3+1.25O2=>NO+1.5H2O  2.35888e+06 8.06671 128008
END
    