ELEMENTS O H N C  AR END
SPECIES NH N2O NH3 NNH HNO H2NO HNOH N N2H2 NO3 CN HCN HNCO HOCN
 	HCNO NCO C2N2 NCN   H2CN CO2 O2 H2O N2 AR     OH O H
 	HO2 H2O2 CO CH2O HCO CH3 CH4 CH2(S) CH2OH CH3O CH2 CH C CH3OH C2H6 
	C2H4 C2H5 C2H3 C2H2 H2 C2 C2H CH3HCO CH2HCO C2H5CHO C2H2OH CH3CO 
	CH2CO HCCOH OCHCHO HCCO C2O NO2 NO NH2 HONO CH2CN CH3CN  END

THERMO

C2H2OH                  C   2H   3O   1    0G   300.000  5000.000 1432.000     1

 6.22800189e 00 7.49055727e-03-2.50690816e-06 3.83916588e-10-2.20740476e-14    2

 1.46499099e 04-6.13007793e 00 4.65202956e 00 4.18808988e-03 9.02055130e-06    3

-8.66939586e-09 2.17803441e-12 1.58770986e 04 4.78089988e 00                   4 

C2H5CHO                 C   3H   6O   1     G    300.00   3500.00 1140.00      1
-3.19796156e+00 4.17401347e-02-2.22156952e-05 5.37596466e-09-4.95601240e-13    2
-2.31457657e+04 4.43385409e+01 4.65967589e+00 1.41694770e-02 1.40614860e-05    3
-1.58387612e-08 4.15675092e-12-2.49373071e+04 5.40040975e+00                   4

CH3CN                   C   2H   3N   1     G    300.00   3500.00  700.00      1
 2.02660925e+00 1.64402545e-02-8.54290907e-06 2.13740318e-09-2.08581596e-13    2
 8.61823027e+03 1.31030643e+01 2.36621609e+00 1.44996440e-02-4.38445795e-06    3
-1.82302645e-09 1.20585756e-12 8.57068531e+03 1.15857868e+01                   4

CH2CN                   C   2H   2N   1     G    300.00   3500.00  980.00      1
 4.41880974e+00 9.83430327e-03-4.98991807e-06 1.22319871e-09-1.17396557e-13    2
 2.92390343e+04 2.02769260e+00 2.71162977e+00 1.68023848e-02-1.56553489e-05    3
 8.47859386e-09-1.96826267e-12 2.95736416e+04 1.02293594e+01                   4



END

TRAN


CH3HCO             2   436.000     3.970     0.000     0.000     2.000 !FROM GRIMECH3.0Trans
CH2CN              1   232.400     3.828     0.000     0.000     1.000
CH3CN              1   500.000     4.630     0.000     0.000     1.000 
C2H5CHO            2   411.000     4.820     0.000     0.000     1.000 
NO3                2   300.000     3.500     0.000     0.000     1.000
OCHCHO             2   470.600     4.410     0.000     0.000     1.500!C2H2O2 from ITL 
HONO               2   200.000     3.500     0.000     0.000     1.000

END


REACTIONS
OH+H2=H2O+H   2.14E+08   1.5    3449
O+OH=O2+H     2.02E+14  -0.4    0
O+H2=OH+H     5.06E+04   2.7    6290
H+O2+M=HO2+M 2.10E+18   -1    0
H2O/10.0/CO2/4.20/H2/2.86/CO/2.11/N2/0.0/
H+O2+N2=HO2+N2 6.70E+19  -1.4    0
OH+HO2=H2O+O2   1.90E+16  -1     0
H+HO2=2OH       1.69E+14   0     874
H+HO2=H2+O2     4.28E+13   0    1411
H+HO2=O+H2O     3.01E+13   0    1721
O+HO2=O2+OH     3.25E+13   0     0
2OH=O+H2O       4.33E+03  2.7  -2485.7
H+H+M=H2+M  1.00E+18 -1 0
H2O/0.0/CO2/0.0/H2/0.0/
H+H+H2=H2+H2    9.20E+16  -0.6   0
H+H+H2O=H2+H2O   6.00E+19 -1.2   0
H+H+CO2=H2+CO2   5.49E+20 -2     0
H+OH+M=H2O+M 1.60E+22 -2 0
H2O/5.0/
H+O+M=OH+M 6.20E+16 -0.6 0
H2O/5./
O+O+M=O2+M 1.89E+13 0 -1788
H2O/5./CO/2./H2/2./CO2/3./
HO2+HO2=H2O2+O2  4.20E+14  0   11982
duplicate
HO2+HO2=H2O2+O2  1.30E+11  0  -1629
duplicate
H2O2+M=OH+OH+M 1.30E+17 0 45500
H2O/5.0/CO2/3.0/H2/2./CO/2./
H2O2+H=HO2+H2    1.69E+12  0  3755
H2O2+H=OH+H2O    1.02E+13  0  3576
H2O2+O=OH+HO2    6.63E+11  0  3974
H2O2+OH=H2O+HO2  7.83E+12  0  1331
duplicate
H2O2+OH=H2O+HO2  5.80E+14  0  9560
duplicate
HO2+NO=NO2+OH    2.11E+12  0  -479
CO+O+M=CO2+M 6.20E+14 0 3000
H2O/5.0/
CO+OH=CO2+H      6.32E+06  1.5 -497
CO+O2=CO2+O      2.50E+12  0  47700
HO2+CO=CO2+OH    5.80E+13  0 22934
CH2O+M=HCO+H+M 3.3E+16 0 81000
H2O/5./
CH2O+H=HCO+H2    1.30E+08 1.6 2166
CH2O+O=HCO+OH    1.80E+13 0   3080
CH2O+OH=HCO+H2O  3.40E+09 1.2 -447
CH2O+HO2=HCO+H2O2 3.00E+12 0 13000
CH2O+O2=HCO+HO2 6.00E+13 0 40660
HCO+M=H+CO+M 1.9E+17 -1 17000
H2O/5.0/
HCO+H=CO+H2     1.20E+13 0.2 0
HCO+O=CO+OH     3.00E+13 0 0
HCO+O=CO2+H     3.00E+13 0 0
HCO+OH=H2O+CO   1.00E+14 0 0
HCO+O2=HO2+CO   7.60E+12 0 400
CH3+H (+M)=CH4 (+M) 1.3E+16 -0.6 383
LOW/ 1.75E+33 -4.7 2400 /
H2O/8.57/ N2/1.43/
CH4+H=CH3+H2    4.42E+12 0 8770
CH4+O=CH3+OH    1.00E+09 1.5 8600
CH4+OH=CH3+H2O  1.60E+06 2.1 2460
CH4+HO2=CH3+H2O2 1.80E+11 0 18700
CH4+O2=CH3+HO2  7.90E+13 0 56000
CH3+H=CH2+H2    9.00E+13 0 15100
CH2(S)+H2=CH3+H 7.20E+13 0 0
CH3+O=CH2O+H    8.40E+13 0 0
CH3+OH=CH2+H2O  7.50E+06 2 5000
CH2(S)+H2O=CH3+OH 3.00E+15 -0.6 0
CH2OH+H=CH3+OH 1.00E+14 0 0
CH3O+H=CH3+OH 1.00E+14 0 0
CH3+OH(+M)=CH3OH(+M) 6.30E+13 0  0
LOW/ 1.89E+38 -6.3 3100 /
H2O/8.58/ N2/1.43/
CH3+HO2=CH3O+OH 8.00E+12 0 0
CH3+O2=CH3O+O 1.30E+14 0 31300
CH3+O2=CH2O+OH 1.90E+12 0 20315
CH3+CH3(+M)=C2H6(+M) 2.37E+12 0 0
LOW/ 1.26E+50 -9.7 6200 /
H2O/8.59/CO2/3.0/H2/2./CO/2./N2/1.43/
CH3+CH2O=CH4+HCO 7.80E-08 6.1 1967
CH3+HCO=CH4+CO 1.20E+14 0 0
CH2+H=CH+H2 1.00E+18 -1.6 0
CH2+O=CO+H+H 5.00E+13 0 0
CH2+O=CO+H2 3.00E+13 0 0
CH2+OH=CH+H2O 1.10E+07 2 3000
CH2+OH=CH2O+H 2.50E+13 0 0
CH2+O2=CO+H2O 2.20E+22 -3.3 2867
CH2+O2=CO2+H+H 3.30E+21 -3.3 2867
CH2+O2=CH2O+O 3.30E+21 -3.3 2867
CH2+O2=CO2+H2 2.60E+21 -3.3 2867
CH2+O2=CO+OH+H 1.60E+21 -3.3 2867
CH2+CO2=CH2O+CO 1.10E+11 0 1000
CH2+CH4=CH3+CH3 4.30E+12 0 10030
CH2+CH3=C2H4+H 4.20E+13 0 0
CH2+CH2=C2H2+H+H 4.00E+13 0 0
CH2+HCCO=C2H3+CO 3.00E+13 0 0
CH2(S)+M=CH2+M 1.00E+13 0 0
H/0./H2O/0./N2/0/AR/0./ 
CH2(S)+N2=CH2+N2 1.30E+13 0 430
CH2(S)+AR=CH2+AR 1.50E+13 0 884
CH2(S)+H=CH2+H 2.00E+14 0 0
CH2(S)+H2O=CH2+H2O 3.00E+13 0 0
CH2(S)+H=CH+H2 3.00E+13 0 0
CH2(S)+O=CO+H+H 3.00E+13 0 0
CH2(S)+OH=CH2O+H 3.00E+13 0 0
CH2(S)+O2=CO+OH+H 7.00E+13 0 0
CH2(S)+CO2=CH2O+CO 3.00E+12 0 0
CH2(S)+CH4=CH3+CH3 4.30E+13 0 0
CH2(S)+CH3=C2H4+H 2.00E+13 0 0
CH2(S)+CH2CO=C2H4+CO 1.60E+14 0 0
CH2(S)+C2H6=CH3+C2H5 1.20E+14 0 0
CH+H=C+H2 1.50E+14 0 0
CH+O=CO+H 5.70E+13 0 0
CH+OH=HCO+H 3.00E+13 0 0
CH+OH=C+H2O 4.00E+07 2 3000
CH+O2=HCO+O 3.30E+13 0 0
CH+H2O=CH2O+H 5.70E+12 0 -751
CH+CO2=HCO+CO 3.40E+12 0 690
CH+CH4=C2H4+H 6.00E+13 0 0
CH+CH3=C2H3+H 3.00E+13 0 0
CH+CH2=C2H2+H 4.00E+13 0 0
CH+CH2O=CH2CO+H 9.50E+13 0 -515
CH+HCCO=C2H2+CO 5.00E+13 0 0
C+OH=CO+H 5.00E+13 0 0
C+O2=CO+O 2.00E+13 0 0
C+CH3=C2H2+H 5.00E+13 0 0
C+CH2=C2H+H 5.00E+13 0 0
CH3OH+H=CH2OH+H2 1.70E+07 2.1 4868
CH3OH+H=CH3O+H2 4.20E+06 2.1 4868
CH3OH+O=CH2OH+OH 3.90E+05 2.5 3080
CH3OH+OH=CH2OH+H2O 5.30E+04 2.5 960
CH3OH+OH=CH3O+H2O 1.32E+04 2.5 960
CH3OH+HO2=CH2OH+H2O2 9.60E+10 0 12578
CH2O+H(+M)=CH3O(+M) 5.40E+11 0.5 2600
LOW/ 1.54E+50 -4.8 5600 /
H2O/8.58/N2/1.43/
CH3O+H=CH2O+H2 2.00E+13 0 0
CH3O+O=CH2O+OH 1.00E+13 0 0
CH3O+OH=CH2O+H2O 1.00E+13 0 0
CH3O+O2=CH2O+HO2 6.30E+10 0 2600
H+CH2O(+M)=CH2OH(+M) 5.40E+11 0.5 3600
LOW/ 9.1E+31 -4.8 6530 /
H2O/8.58/CO2/3.0/H2/2./CO/2./N2/1.43/
CH2OH+H=CH2O+H2 2.00E+13 0 0
CH2OH+O=CH2O+OH 1.00E+13 0 0
CH2OH+OH=CH2O+H2O 1.00E+13 0 0
CH2OH+O2=CH2O+HO2 1.60E+15 -1 0
duplicate
CH2OH+O2=CH2O+HO2 7.20E+13 0 3577
duplicate
C2H6+H=C2H5+H2 5.40E+02 3.5 5210
C2H6+O=C2H5+OH 3.00E+07 2 5115
C2H6+OH=C2H5+H2O 7.20E+06 2 864
C2H6+HO2=C2H5+H2O2 1.30E+13 0 20460
C2H6+O2=C2H5+HO2 5.00E+13 0 55000
C2H6+CH3=C2H5+CH4 5.50E-01 4 8300
C2H4+H(+M)=C2H5(+M) 1.10E+12 0.5 1822
LOW/ 1.11E+34 -5 4448 /
H2O/5.0/
C2H5+H(+M)=C2H6(+M) 5.20E+17 -1 1580
LOW/ 2.0E+41 -7.1 6685 /
H2O/6./ N2/1./AR/0.7/
C2H5+H=CH3+CH3 4.90E+12 0.3 0
C2H5+O=CH3+CH2O 4.20E+13 0 0
C2H5+O=CH3HCO+H 5.30E+13 0 0
C2H5+O=C2H4+OH 3.00E+13 0 0
C2H5+OH=C2H4+H2O 2.40E+13 0 0
C2H5+O2=C2H4+HO2 1.00E+10 0 -2190
C2H5+CH2O=C2H6+HCO 5.50E+03 2.8 5860
C2H5+HCO=C2H6+CO 1.20E+14 0 0
C2H5+CH3=C2H4+CH4 1.10E+12 0 0
C2H5+C2H5=C2H6+C2H4 1.50E+12 0 0
C2H3+H(+M)=C2H4(+M) 6.10E+12 0.3 280
LOW/ 9.8E+29 -3.9 3320 /
H2O/7.14/ CO2/2.85/ H2/2.85/ CO/2.1/ N2/1.43/ C2H4/4.29/ CH4/2.85/
C2H4+M=C2H2+H2+M 3.50E+16 0 71500
H2O/10/  N2/1.5/
C2H4+H=C2H3+H2 5.40E+14 0 14900
C2H4+O=CH2HCO+H 4.70E+06 1.9 180
C2H4+O=CH3+HCO 8.10E+06 1.9 180
C2H4+O=CH2CO+H2 6.80E+05 1.9 180
C2H4+OH=C2H3+H2O 2.00E+13 0 5940
C2H4+HO2=CH3HCO+OH 2.20E+12 0 17200
C2H4+O2=CH2HCO+OH 2.00E+08 1.5 39000
C2H4+CH3=C2H3+CH4 5.00E+11 0 15000
H+C2H2(+M)=C2H3(+M) 3.10E+11 0.6 2590
LOW/ 2.25E+40 -7.3 6577 /
H2O/5./ CO2/3.0/ H2/2./ CO/2./ 
C2H3+H=C2H2+H2 4.00E+13 0 0
C2H3+O=CH2CO+H 3.00E+13 0 0
C2H3+OH=C2H2+H2O 2.00E+13 0 0
C2H3+O2=CH2O+HCO 1.10E+23 -3.3 3890
C2H3+O2=CH2HCO+O 2.50E+15 -0.8 3135
C2H3+O2=C2H2+HO2 5.20E+15 -1.3 3310
C2H3+CH2O=C2H4+HCO 5.40E+03 2.8 5860
C2H3+HCO=C2H4+CO 9.00E+13 0 0
C2H3+CH3=C2H2+CH4 2.10E+13 0 0
C2H3+C2H3=C2H4+C2H2 1.50E+13 0 0
C2H2+M=C2H+H+M 9.10E+30 -3.7 127138
H2O/5./ CO2/3.0/ H2/2./ CO/2./
H2+C2H=C2H2+H 4.10E+05 2.4 864
C2H2+O=CH2+CO 6.10E+06 2 1900
C2H2+O=HCCO+H 1.40E+07 2 1900
C2H2+O=C2H+OH 3.20E+15 -0.6 15000
OH+C2H2=C2H+H2O 3.40E+07 2 14000
OH+C2H2=HCCOH+H 5.00E+05 2.3 13500
OH+C2H2=CH2CO+H 2.20E-04 4.5 -1000
OH+C2H2=CH3+CO 4.80E-04 4 -2000
OH+C2H2(+M)=C2H2OH(+M) 1.50E+08 1.7 1000
LOW/ 1.81E+23  -2  0 /
H2O /5./ CO2/3.0/H2/2./CO/2./
HO2+C2H2=CH2HCO+O 1.00E+12 0 10000
HO2+C2H2=CH2O+HCO 1.00E+12 0 10000
C2H2+O2=HCO+HCO 2.00E+08 1.5 30100
C2+H2=C2H+H 4.00E+05 2.4 1000
C2H+O=CH+CO 5.00E+13 0 0
C2H+OH=HCCO+H 2.00E+13 0 0
C2H+OH=C2+H2O 4.00E+07 2 8000
C2H+O2=CO+CO+H 2.50E+13 0 0
C2H+CH4=CH3+C2H2 7.20E+12 0 976
C2+OH=C2O+H 5.00E+13 0 0
C2+O2=CO+CO 5.00E+13 0 0
CH3HCO=CH3+HCO 7.10E+15 0 81280
CH3HCO+H=CH3CO+H2 4.10E+09 1.2 2400
CH3HCO+O=CH3CO+OH 5.80E+12 0 1800
CH3HCO+OH=CH3CO+H2O 2.30E+10 0.7 -1110
CH3HCO+HO2=CH3CO+H2O2 3.00E+12 0 12000
CH3HCO+O2=CH3CO+HO2 3.00E+13 0 39000
CH3HCO+CH3=CH3CO+CH4 2.00E-06 5.6 2464
CH2HCO=CH3+CO 1.00E+13 0 42000
CH2HCO+H=CH3+HCO 1.00E+14 0 0
CH2HCO+H=CH3CO+H 3.00E+13 0 0
CH2HCO+O=CH2O+HCO 5.00E+13 0 0
CH2HCO+OH=CH2CO+H2O 2.00E+13 0 0
CH2HCO+OH=CH2OH+HCO 1.00E+13 0 0
CH2HCO+O2=CH2O+CO+OH 2.20E+11 0 1500
CH2HCO+CH3=C2H5CHO 5.00E+13 0 0
CH2HCO+CH2=C2H4+HCO 5.00E+13 0 0
CH2HCO+CH=C2H3+HCO 1.00E+14 0 0
C2H5+HCO=C2H5CHO 1.80E+13 0 0
!C2H5CHO+H=C2H5CO+H2 8.00E+13 0 0
!C2H5CHO+O=C2H5CO+OH 7.80E+12 0 1730
!C2H5CHO+OH=C2H5CO+H2O 1.20E+13 0 0
!C2H5+CO=C2H5CO 1.50E+11 0 4800
C2H2OH+H=CH2HCO+H 5.00E+13 0 0
C2H2OH+O=OCHCHO+H 5.00E+13 0 0
C2H2OH+O2=OCHCHO+OH 1.00E+12 0 5000
CH3CO(+M)=CH3+CO(+M) 2.80E+13 0 17100
LOW/ 2.1E+15  0  14000  /
H2O /5./ CO2/3.0/H2/2./CO/2./
CH3CO+H=CH3+HCO 2.10E+13 0 0
CH3CO+H=CH2CO+H2 1.20E+13 0 0
CH3CO+O=CH3+CO2 1.50E+14 0 0
CH3CO+O=CH2CO+OH 4.00E+13 0 0
CH3CO+OH=CH2CO+H2O 1.20E+13 0 0
CH2+CO(+M)=CH2CO(+M) 8.10E+11 0.5 4510
LOW/ 1.88E+33  -5.1  7095 /
H2O /8.58/ CO2/3.0/ H2/2./ CO/2./ N2/1.43/

CH2CO+H=CH3+CO 5.90E+06 2 1300
CH2CO+H=HCCO+H2 3.00E+07 2 10000
CH2CO+O=CO2+CH2 1.80E+12 0 1350
CH2CO+O=HCCO+OH 2.00E+07 2 10000
CH2CO+OH=HCCO+H2O 1.00E+07 2 3000
CH2CO+OH=CH2OH+CO 7.20E+12 0 0
CH2CO+OH=CH3+CO2 3.00E+12 0 0
HCCOH+H=HCCO+H2 3.00E+07 2 1000
HCCOH+OH=HCCO+H2O 1.00E+07 2 1000
HCCOH+O=HCCO+OH 2.00E+07 3 1900
OCHCHO+M=HCO+HCO+M 1.00E+17 0 58000
OCHCHO+H=CH2O+HCO 3.00E+13 0 0
CH+CO(+M)=HCCO(+M) 5.00E+13 0 0
LOW/ 1.88E+28  -3.7  1936 /
H2O /8.58/ CO2/3.0/ H2/2./ CO/2./ N2/1.43/
H+HCCO=CH2(S)+CO 1.00E+14 0 0
O+HCCO=H+CO+CO 1.00E+14 0 0
HCCO+OH=C2O+H2O 6.00E+13 0 0
HCCO+O2=CO2+CO+H 1.40E+07 1.7 1000
HCCO+O2=CO+CO+OH 2.90E+07 1.7 1000
HCCO+HCCO=C2H2+CO+CO 1.00E+13 0 0
C2O+H=CH+CO 1.00E+13 0 0
C2O+O=CO+CO 5.00E+13 0 0
C2O+OH=CO+CO+H 2.00E+13 0 0
C2O+O2=CO+CO+O 2.00E+13 0 0
NO2+NO2=NO+NO+O2 1.63E+12 0 26123
NO2+H=NO+OH 8.40E+13 0 0
NO2+O=NO+O2 3.90E+12 0 -238
NO+O+M=NO2+M 7.50E+19 -1.4 0
H2O /10/ O2/1.5/ N2/1.7/
NO2+NH=N2O+OH 1.00E+13 0 0
NO2+NH2=N2O+H2O 1.62E+16 -1.4 268
NH2+NO2=H2NO+NO 6.48E+16 -1.4 268
NO2+HNO=HONO+NO 6.00E+11 0 2000
OH+NO+M=HONO+M 5.08E+23 -2.5 -67.6
H2O /5.0/
HONO+O=OH+NO2 1.20E+13 0 5961
HONO+OH=H2O+NO2 4.00E+12 0 0
HONO+NH2=NO2+NH3 7.11E+01 3 -4941
HONO+H=H2+NO2 1.20E+13 0 7352
NH+O2=HNO+O 4.61E+05 2 6500
NH+O2=NO+OH 1.28E+06 1.5 100
NH+NO=N2O+H 2.94E+14 -0.4 0
duplicate
NH+NO=N2O+H 2.16E+13 -0.2 0
duplicate
NH+NO=N2+OH 2.16E+13 -0.2 0
NH+OH=HNO+H 2.00E+13 0 0
NH+OH=N+H2O 5.00E+11 0.5 2000
NH+N=N2+H 3.00E+13 0 0
NH+H=N+H2 3.00E+13 0 0
NH+O=NO+H 9.20E+13 0 0
N2O+OH=N2+HO2 1.29E-02 4.7 36561
N2O+OH=HNO+NO 1.18E-04 4.3 25081
N2O+NO=NO2+N2 5.26E+05 2.2 46281
N2O+H=N2+OH 3.31E+10 0 4729
duplicate
N2O+H=N2+OH 4.40E+14 0 19254
duplicate
N2O+M=N2+O+M 4.00E+14 0 56100
H2O /12/ O2/1.4/ CO2/3/ CO/1.5/ N2/1.7/

N2O+O=N2+O2 1.00E+14 0 28000
N2O+O=NO+NO 6.60E+13 0 16630
NH2+O=HNO+H 6.63E+14 -0.5 0
NH2+O=NH+OH 6.75E+12 0 0
NH2+OH=NH+H2O 4.00E+06 2 1000
NH2+H=NH+H2 4.00E+13 0 3650
NH2+HO2=NH3+O2 1.00E+13 0 0
NH2+HO2=H2NO+OH 5.00E+13 0 0
NH2+NH2=N2H2+H2 8.50E+11 0 0
NH2+NO=N2+H2O 2.77E+20 -2.7 1258.3
NH2+NO=NNH+OH 2.29E+10 0.4 -813.6
NH3+M= NH2+H+M 2.20E+16 0 93470
H2O /5./ CO2/3./ CO/2./ H2/2./

NH3+OH=NH2+H2O 2.04E+06 2 566
NH3+H=NH2+H2 6.36E+05 2.4 10171
NH3+O=NH2+OH 9.40E+06 1.9 6460
NH3+HO2=NH2+H2O2 3.00E+11 0 22000
NNH=N2+H 6.50E+07 0 0
NNH+O2=N2+HO2 2.00E+14 0 0
NNH+O2=N2+O2+H 5.00E+13 0 0
NNH+NO=N2+HNO 5.00E+13 0 0
NNH+H=N2+H2 1.00E+14 0 0
NNH+OH=N2+H2O 5.00E+13 0 0
NNH+NH2=N2+NH3 5.00E+13 0 0
NNH+NH=N2+NH2 5.00E+13 0 0
NNH+O=N2+OH 8.00E+13 0 0
NNH+O=N2O+H 1.00E+14 0 0
NNH+O=NH+NO 5.00E+13 0 0
H+NO+M=HNO+M 4.00E+20 -1.8 0
H2O /10./ O2/1.5/ CO2/3./ H2/2./ N2/0.0/
H+NO+N2=HNO+N2 4.00E+20 -1.8 0
HNO+OH=NO+H2O 3.60E+13 0 0
HNO+H=H2+NO 4.46E+11 0.7 655
HNO+O=OH+NO 1.00E+13 0 0
HNO+NH2=NH3+NO 3.63E+06 1.6 -1252
HNO+HNO=N2O+H2O 9.00E+08 0 3100
HNO+O2=HO2+NO 2.00E+12 0 25000
H2NO+O2=HNO+HO2 3.00E+12 0 25000
H2NO+M=HNOH+M 1.10E+29 -4 43982
H2O /10./ 
H2NO+M=HNO+H+M 2.80E+24 -2.8 64915
H2O /10./
H2NO+NO2=HNO+HONO 6.00E+11 0 2000
H2NO+H=HNO+H2 3.00E+07 2 2000
H2NO+H=NH2+OH 5.00E+13 0 0
H2NO+O=HNO+OH 3.00E+07 2 2000
H2NO+O=NH2+O2 2.50E+14 0 0
H2NO+OH=HNO+H2O 2.00E+07 2 1000
H2NO+NO=HNO+HNO 2.00E+07 2 13000
H2NO+NH2=NH3+HNO 3.00E+12 0 1000
H2NO+HO2=HNO+H2O2 2.90E+04 2.7 -1600
HNOH+H=NH2+OH 4.00E+13 0 0
HNOH+H=HNO+H2 4.80E+08 1.5 378
HNOH+O=HNO+OH 7.00E+13 0 0
duplicate
HNOH+O=HNO+OH 3.30E+08 1.5 -358
duplicate
HNOH+OH=HNO+H2O 2.40E+06 2 -1192
HNOH+NH2=NH3+HNO 1.80E+06 1.9 -1152
HNOH+HO2=HNO+H2O2 2.90E+04 2.7 -1600
HNOH+M=HNO+H+M 2.00E+24 -2.8 58934
H2O /10.0/
HNOH+O2=HNO+HO2 3.00E+12 0 25000
HNOH+NO2=HONO+HNO 6.00E+11 0 2000
N+NO=N2+O 3.27E+12 0.3 0
N+O2=NO+O 6.40E+09 1 6280
N+OH=NO+H 3.80E+13 0 0
NH2+NH=N2H2+H 5.00E+13 0 0
NH+NH=N2+H+H 2.54E+13 0 0
NH2+N=N2+H+H 7.20E+13 0 0
N2H2+M=NNH+H+M 5.00E+16 0 50000
H2O /15.0/ O2/2.0/ H2/2.0/ N2/2.0/
N2H2+H=NNH+H2 5.00E+13 0 1000
N2H2+O=NH2+NO 1.00E+13 0 0
N2H2+O=NNH+OH 2.00E+13 0 1000
N2H2+OH=NNH+H2O 1.00E+13 0 1000
N2H2+NO=N2O+NH2 3.00E+12 0 0
N2H2+NH=NNH+NH2 1.00E+13 0 1000
N2H2+NH2=NH3+NNH 1.00E+13 0 1000
NO2+O(+M)=NO3(+M) 1.30E+13 0 0
LOW/ 1.0E+28  -4.1  2470  /
H2O /18.6/ O2/1.5/  N2/1.5/
NO2+NO2=NO3+NO 9.60E+09 0.7 20900
NO3+H=NO2+OH 6.00E+13 0 0
NO3+O=NO2+O2 1.00E+13 0 0
NO3+OH=NO2+HO2 1.40E+13 0 0
NO3+HO2=NO2+O2+OH 1.50E+12 0 0
NO3+NO2=NO+NO2+O2 5.00E+10 0 2940
CN+H2=HCN+H 3.00E+05 2.5 2237
HCN+O=NCO+H 1.40E+04 2.6 4980
HCN+O=NH+CO 3.50E+03 2.6 4980
HCN+O=CN+OH 2.70E+09 1.6 29200
HCN+OH=CN+H2O 3.90E+06 1.8 10300
HCN+OH=HOCN+H 5.90E+04 2.4 12500
HCN+OH=HNCO+H 2.00E-03 4 1000
HCN+OH=NH2+CO 7.80E-04 4 4000
HCN+CN=C2N2+H 1.50E+07 1.7 1530
CN+O=CO+N 7.70E+13 0 0
CN+OH=NCO+H 4.00E+13 0 0
CN+O2=NCO+O 7.50E+12 0 -389
CN+CO2=NCO+CO 3.70E+06 2.2 26884
CN+NO2=NCO+NO 5.30E+15 -0.8 344
CN+NO2=CO+N2O 4.90E+14 -0.8 344
CN+NO2=N2+CO2 3.70E+14 -0.8 344
CN+HNO=HCN+NO 1.80E+13 0 0
CN+HONO=HCN+NO2 1.20E+13 0 0
CN+N2O=NCN+NO 3.90E+03 2.6 3696
CN+HNCO=HCN+NCO 1.50E+13 0 0
CN+NCO=NCN+CO 1.80E+13 0 0
HNCO+M=NH+CO+M 1.10E+16 0 86000
HNCO+H=NH2+CO 2.20E+07 1.7 3800
HNCO+O=HNO+CO 1.50E+08 1.6 44012
HNCO+O=NH+CO2 9.80E+07 1.4 8524
HNCO+O=NCO+OH 2.20E+06 2.1 11425
HNCO+OH=NCO+H2O 6.40E+05 2 2563
HNCO+HO2=NCO+H2O2 3.00E+11 0 22000
HNCO+O2=HNO+CO2 1.00E+12 0 35000
HNCO+NH2=NH3+NCO 5.00E+12 0 6200
HNCO+NH=NH2+NCO 3.00E+13 0 23700
HOCN+H=NCO+H2 2.00E+07 2 2000
HOCN+O=NCO+OH 1.50E+04 2.6 4000
HOCN+OH=NCO+H2O 6.40E+05 2 2563
HCNO+H=HCN+OH 1.00E+14 0 12000
HCNO+O=HCO+NO 2.00E+14 0 0
HCNO+OH=CH2O+NO 4.00E+13 0 0
NCO+M=N+CO+M 3.10E+16 -0.5 48000
NCO+H=NH+CO 5.00E+13 0 0
NCO+O=NO+CO 4.70E+13 0 0
NCO+OH=NO+HCO 5.00E+12 0 15000
NCO+O2=NO+CO2 2.00E+12 0 20000
NCO+H2=HNCO+H 7.60E+02 3 4000
NCO+HCO=HNCO+CO 3.60E+13 0 0
NCO+NO=N2O+CO 6.20E+17 -1.7 763
NCO+NO=N2+CO2 7.80E+17 -1.7 763
NCO+NO2=CO+NO+NO 2.50E+11 0 -707
NCO+NO2=CO2+N2O 3.00E+12 0 -707
NCO+HNO=HNCO+NO 1.80E+13 0 0
NCO+HONO=HNCO+NO2 3.60E+12 0 0
NCO+N=N2+CO 2.00E+13 0 0
NCO+NCO=N2+CO+CO 1.80E+13 0 0
C2N2+O=NCO+CN 4.60E+12 0 8880
C2N2+OH=HOCN+CN 1.90E+11 0 2900
NCN+O=CN+NO 1.00E+14 0 0
NCN+OH=HCN+NO 5.00E+13 0 0
NCN+H=HCN+N 1.00E+14 0 0
NCN+O2=NO+NCO 1.00E+13 0 0
H+CH3CN=HCN+CH3 4.00E+07 2 2000
H+CH3CN=CH2CN+H2 3.00E+07 2 1000
O+CH3CN=NCO+CH3 1.50E+04 2.6 4980
OH+CH3CN=CH2CN+H2O 2.00E+07 2 2000
CH2CN+O=CH2O+CN 1.00E+14 0 0
CN+CH2OH=CH2CN+OH 5.00E+13 0 0
H2CN+M=HCN+H+M 3.00E+14 0 22000
CO+NO2=CO2+NO 9.00E+13 0 33779
CO+N2O=N2+CO2 3.20E+11 0 20237
CO2+N=NO+CO 1.90E+11 0 3400
CH2O+NCO=HNCO+HCO 6.00E+12 0 0
CH2O+NO2=HCO+HONO 8.00E+02 2.8 13730
HCO+NO=HNO+CO 7.20E+12 0 0
HCO+NO2=CO+HONO 1.20E+23 -3.3 2355
HCO+NO2=H+CO2+NO 8.40E+15 -0.8 1930
HCO+HNO=CH2O+NO 6.00E+11 0 2000
CH4+CN=CH3+HCN 6.20E+04 2.6 -437
NCO+CH4=CH3+HNCO 9.80E+12 0 8120
CH3+NO=HCN+H2O 1.50E-01 3.52 3950
CH3+NO=H2CN+OH 1.50E-01 3.5 3950
CH3+NO2=CH3O+NO 1.40E+13 0 0
CH3+N=H2CN+H 7.10E+13 0 0
CH3+CN=CH2CN+H 1.00E+14 0 0
CH3+HOCN=CH3CN+OH 5.00E+12 0 2000
CH2+NO=HCN+OH 2.20E+12 0 -378
CH2+NO=HCNO+H 1.30E+12 0 -378
CH2+NO2=CH2O+NO 5.90E+13 0 0
CH2+N=HCN+H 5.00E+13 0 0
CH2+N2=HCN+NH 1.00E+13 0 74000
H2CN+N=N2+CH2 2.00E+13 0 0
CH2(S)+NO=HCN+OH 2.00E+13 0 0
CH2(S)+NO=CH2+NO 1.00E+14 0 0
CH2(S)+HCN=CH3+CN 5.00E+13 0 0
CH+NO2=HCO+NO 1.00E+14 0 0
CH+NO=HCN+O 4.80E+13 0 0
CH+NO=HCO+N 3.40E+13 0 0
CH+NO=NCO+H 1.90E+13 0 0
CH+N=CN+H 1.30E+13 0 0
CH+N2=HCN+N 3.70E+07 1.4 20723
CH+N2O=HCN+NO 1.90E+13 0 -511
C+NO=CN+O 2.00E+13 0 0
C+NO=CO+N 2.80E+13 0 0
C+N2=CN+N 6.30E+13 0 46019
C+N2O=CN+NO 5.10E+12 0 0
C2H6+CN=C2H5+HCN 1.20E+05 2.8 -1788
C2H6+NCO=C2H5+HNCO 1.50E-09 6.9 -2910
C2H4+CN=C2H3+HCN 5.90E+14 -0.2 0
C2H3+NO=C2H2+HNO 1.00E+12 0 1000
C2H3+N=HCN+CH2 2.00E+13 0 0
C2H2+NCO=HCCO+HCN 1.40E+12 0 1815
C2H+NO=CN+HCO 2.10E+13 0 0
CH2CO+CN=HCCO+HCN 2.00E+13 0 0
HCCO+NO=HCNO+CO 7.20E+12 0 0
HCCO+NO=HCN+CO2 1.60E+13 0 0
HCCO+NO2=HCNO+CO2 1.60E+13 0 0
HCCO+N=HCN+CO 5.00E+13 0 0

END
